<?xml version="1.0" encoding="UTF-8"?>

<!-- generated on 2026-03-22T15:04:02.701616+05:30 by Eclipse SUMO netconvert 1.26.0
<netconvertConfiguration xmlns:xsi="http://www.w3.org/2001/XMLSchema-instance" xsi:noNamespaceSchemaLocation="http://sumo.dlr.de/xsd/netconvertConfiguration.xsd">

    <input>
        <node-files value="nets\single-intersection\nodes.nod.xml"/>
        <edge-files value="nets\single-intersection\edges.edg.xml"/>
    </input>

    <output>
        <output-file value="nets\single-intersection\network.net.xml"/>
    </output>

</netconvertConfiguration>
-->

<net version="1.20" junctionCornerDetail="5" limitTurnSpeed="5.50" xmlns:xsi="http://www.w3.org/2001/XMLSchema-instance" xsi:noNamespaceSchemaLocation="http://sumo.dlr.de/xsd/net_file.xsd">

    <location netOffset="300.00,300.00" convBoundary="0.00,0.00,600.00,600.00" origBoundary="-300.00,-300.00,300.00,300.00" projParameter="!"/>

    <edge id=":C_0" function="internal">
        <lane id=":C_0_0" index="0" speed="6.51" length="9.03" shape="292.00,313.60 291.65,311.15 290.60,309.40 288.85,308.35 286.40,308.00"/>
    </edge>
    <edge id=":C_1" function="internal">
        <lane id=":C_1_0" index="0" speed="13.89" length="27.20" shape="292.00,313.60 292.00,286.40"/>
        <lane id=":C_1_1" index="1" speed="13.89" length="27.20" shape="295.20,313.60 295.20,286.40"/>
        <lane id=":C_1_2" index="2" speed="13.89" length="27.20" shape="298.40,313.60 298.40,286.40"/>
    </edge>
    <edge id=":C_4" function="internal">
        <lane id=":C_4_0" index="0" speed="10.36" length="5.01" shape="298.40,313.60 299.11,308.64"/>
    </edge>
    <edge id=":C_5" function="internal">
        <lane id=":C_5_0" index="0" speed="3.65" length="1.44" shape="298.40,313.60 299.20,312.40"/>
    </edge>
    <edge id=":C_24" function="internal">
        <lane id=":C_24_0" index="0" speed="10.36" length="19.50" shape="299.11,308.64 299.35,306.95 302.20,302.20 306.95,299.35 313.60,298.40"/>
    </edge>
    <edge id=":C_25" function="internal">
        <lane id=":C_25_0" index="0" speed="3.65" length="3.23" shape="299.20,312.40 300.00,312.00 300.80,312.40 301.60,313.60"/>
    </edge>
    <edge id=":C_6" function="internal">
        <lane id=":C_6_0" index="0" speed="6.51" length="9.03" shape="313.60,308.00 311.15,308.35 309.40,309.40 308.35,311.15 308.00,313.60"/>
    </edge>
    <edge id=":C_7" function="internal">
        <lane id=":C_7_0" index="0" speed="13.89" length="27.20" shape="313.60,308.00 286.40,308.00"/>
        <lane id=":C_7_1" index="1" speed="13.89" length="27.20" shape="313.60,304.80 286.40,304.80"/>
        <lane id=":C_7_2" index="2" speed="13.89" length="27.20" shape="313.60,301.60 286.40,301.60"/>
    </edge>
    <edge id=":C_10" function="internal">
        <lane id=":C_10_0" index="0" speed="10.36" length="5.01" shape="313.60,301.60 308.64,300.89"/>
    </edge>
    <edge id=":C_11" function="internal">
        <lane id=":C_11_0" index="0" speed="3.65" length="1.44" shape="313.60,301.60 312.40,300.80"/>
    </edge>
    <edge id=":C_26" function="internal">
        <lane id=":C_26_0" index="0" speed="10.36" length="19.50" shape="308.64,300.89 306.95,300.65 302.20,297.80 299.35,293.05 298.40,286.40"/>
    </edge>
    <edge id=":C_27" function="internal">
        <lane id=":C_27_0" index="0" speed="3.65" length="3.23" shape="312.40,300.80 312.00,300.00 312.40,299.20 313.60,298.40"/>
    </edge>
    <edge id=":C_12" function="internal">
        <lane id=":C_12_0" index="0" speed="6.51" length="9.03" shape="308.00,286.40 308.35,288.85 309.40,290.60 311.15,291.65 313.60,292.00"/>
    </edge>
    <edge id=":C_13" function="internal">
        <lane id=":C_13_0" index="0" speed="13.89" length="27.20" shape="308.00,286.40 308.00,313.60"/>
        <lane id=":C_13_1" index="1" speed="13.89" length="27.20" shape="304.80,286.40 304.80,313.60"/>
        <lane id=":C_13_2" index="2" speed="13.89" length="27.20" shape="301.60,286.40 301.60,313.60"/>
    </edge>
    <edge id=":C_16" function="internal">
        <lane id=":C_16_0" index="0" speed="10.36" length="5.01" shape="301.60,286.40 300.89,291.36"/>
    </edge>
    <edge id=":C_17" function="internal">
        <lane id=":C_17_0" index="0" speed="3.65" length="1.44" shape="301.60,286.40 300.80,287.60"/>
    </edge>
    <edge id=":C_28" function="internal">
        <lane id=":C_28_0" index="0" speed="10.36" length="19.50" shape="300.89,291.36 300.65,293.05 297.80,297.80 293.05,300.65 286.40,301.60"/>
    </edge>
    <edge id=":C_29" function="internal">
        <lane id=":C_29_0" index="0" speed="3.65" length="3.23" shape="300.80,287.60 300.00,288.00 299.20,287.60 298.40,286.40"/>
    </edge>
    <edge id=":C_18" function="internal">
        <lane id=":C_18_0" index="0" speed="6.51" length="9.03" shape="286.40,292.00 288.85,291.65 290.60,290.60 291.65,288.85 292.00,286.40"/>
    </edge>
    <edge id=":C_19" function="internal">
        <lane id=":C_19_0" index="0" speed="13.89" length="27.20" shape="286.40,292.00 313.60,292.00"/>
        <lane id=":C_19_1" index="1" speed="13.89" length="27.20" shape="286.40,295.20 313.60,295.20"/>
        <lane id=":C_19_2" index="2" speed="13.89" length="27.20" shape="286.40,298.40 313.60,298.40"/>
    </edge>
    <edge id=":C_22" function="internal">
        <lane id=":C_22_0" index="0" speed="10.36" length="5.01" shape="286.40,298.40 291.36,299.11"/>
    </edge>
    <edge id=":C_23" function="internal">
        <lane id=":C_23_0" index="0" speed="3.65" length="1.44" shape="286.40,298.40 287.60,299.20"/>
    </edge>
    <edge id=":C_30" function="internal">
        <lane id=":C_30_0" index="0" speed="10.36" length="19.50" shape="291.36,299.11 293.05,299.35 297.80,302.20 300.65,306.95 301.60,313.60"/>
    </edge>
    <edge id=":C_31" function="internal">
        <lane id=":C_31_0" index="0" speed="3.65" length="3.23" shape="287.60,299.20 288.00,300.00 287.60,300.80 286.40,301.60"/>
    </edge>
    <edge id=":E_0" function="internal">
        <lane id=":E_0_0" index="0" speed="3.65" length="4.67" shape="600.00,298.40 601.20,299.20 601.60,300.00 601.20,300.80 600.00,301.60"/>
    </edge>
    <edge id=":N_0" function="internal">
        <lane id=":N_0_0" index="0" speed="3.65" length="4.67" shape="301.60,600.00 300.80,601.20 300.00,601.60 299.20,601.20 298.40,600.00"/>
    </edge>
    <edge id=":S_0" function="internal">
        <lane id=":S_0_0" index="0" speed="3.65" length="4.67" shape="298.40,0.00 299.20,-1.20 300.00,-1.60 300.80,-1.20 301.60,0.00"/>
    </edge>
    <edge id=":W_0" function="internal">
        <lane id=":W_0_0" index="0" speed="3.65" length="4.67" shape="0.00,301.60 -1.20,300.80 -1.60,300.00 -1.20,299.20 0.00,298.40"/>
    </edge>

    <edge id="CE" from="C" to="E" priority="-1">
        <lane id="CE_0" index="0" speed="13.89" length="286.40" shape="313.60,292.00 600.00,292.00"/>
        <lane id="CE_1" index="1" speed="13.89" length="286.40" shape="313.60,295.20 600.00,295.20"/>
        <lane id="CE_2" index="2" speed="13.89" length="286.40" shape="313.60,298.40 600.00,298.40"/>
    </edge>
    <edge id="CN" from="C" to="N" priority="-1">
        <lane id="CN_0" index="0" speed="13.89" length="286.40" shape="308.00,313.60 308.00,600.00"/>
        <lane id="CN_1" index="1" speed="13.89" length="286.40" shape="304.80,313.60 304.80,600.00"/>
        <lane id="CN_2" index="2" speed="13.89" length="286.40" shape="301.60,313.60 301.60,600.00"/>
    </edge>
    <edge id="CS" from="C" to="S" priority="-1">
        <lane id="CS_0" index="0" speed="13.89" length="286.40" shape="292.00,286.40 292.00,0.00"/>
        <lane id="CS_1" index="1" speed="13.89" length="286.40" shape="295.20,286.40 295.20,0.00"/>
        <lane id="CS_2" index="2" speed="13.89" length="286.40" shape="298.40,286.40 298.40,0.00"/>
    </edge>
    <edge id="CW" from="C" to="W" priority="-1">
        <lane id="CW_0" index="0" speed="13.89" length="286.40" shape="286.40,308.00 0.00,308.00"/>
        <lane id="CW_1" index="1" speed="13.89" length="286.40" shape="286.40,304.80 0.00,304.80"/>
        <lane id="CW_2" index="2" speed="13.89" length="286.40" shape="286.40,301.60 0.00,301.60"/>
    </edge>
    <edge id="EC" from="E" to="C" priority="-1">
        <lane id="EC_0" index="0" speed="13.89" length="286.40" shape="600.00,308.00 313.60,308.00"/>
        <lane id="EC_1" index="1" speed="13.89" length="286.40" shape="600.00,304.80 313.60,304.80"/>
        <lane id="EC_2" index="2" speed="13.89" length="286.40" shape="600.00,301.60 313.60,301.60"/>
    </edge>
    <edge id="NC" from="N" to="C" priority="-1">
        <lane id="NC_0" index="0" speed="13.89" length="286.40" shape="292.00,600.00 292.00,313.60"/>
        <lane id="NC_1" index="1" speed="13.89" length="286.40" shape="295.20,600.00 295.20,313.60"/>
        <lane id="NC_2" index="2" speed="13.89" length="286.40" shape="298.40,600.00 298.40,313.60"/>
    </edge>
    <edge id="SC" from="S" to="C" priority="-1">
        <lane id="SC_0" index="0" speed="13.89" length="286.40" shape="308.00,0.00 308.00,286.40"/>
        <lane id="SC_1" index="1" speed="13.89" length="286.40" shape="304.80,0.00 304.80,286.40"/>
        <lane id="SC_2" index="2" speed="13.89" length="286.40" shape="301.60,0.00 301.60,286.40"/>
    </edge>
    <edge id="WC" from="W" to="C" priority="-1">
        <lane id="WC_0" index="0" speed="13.89" length="286.40" shape="0.00,292.00 286.40,292.00"/>
        <lane id="WC_1" index="1" speed="13.89" length="286.40" shape="0.00,295.20 286.40,295.20"/>
        <lane id="WC_2" index="2" speed="13.89" length="286.40" shape="0.00,298.40 286.40,298.40"/>
    </edge>

    <tlLogic id="C" type="static" programID="0" offset="0">
        <phase duration="42" state="GGGGggrrrrrrGGGGggrrrrrr"/>
        <phase duration="3"  state="yyyyyyrrrrrryyyyyyrrrrrr"/>
        <phase duration="42" state="rrrrrrGGGGggrrrrrrGGGGgg"/>
        <phase duration="3"  state="rrrrrryyyyyyrrrrrryyyyyy"/>
    </tlLogic>

    <junction id="C" type="traffic_light" x="300.00" y="300.00" incLanes="NC_0 NC_1 NC_2 EC_0 EC_1 EC_2 SC_0 SC_1 SC_2 WC_0 WC_1 WC_2" intLanes=":C_0_0 :C_1_0 :C_1_1 :C_1_2 :C_24_0 :C_25_0 :C_6_0 :C_7_0 :C_7_1 :C_7_2 :C_26_0 :C_27_0 :C_12_0 :C_13_0 :C_13_1 :C_13_2 :C_28_0 :C_29_0 :C_18_0 :C_19_0 :C_19_1 :C_19_2 :C_30_0 :C_31_0" shape="290.40,313.60 309.60,313.60 310.04,311.38 310.60,310.60 311.38,310.04 312.38,309.71 313.60,309.60 313.60,290.40 311.38,289.96 310.60,289.40 310.04,288.62 309.71,287.62 309.60,286.40 290.40,286.40 289.96,288.62 289.40,289.40 288.62,289.96 287.62,290.29 286.40,290.40 286.40,309.60 288.62,310.04 289.40,310.60 289.96,311.38 290.29,312.38">
        <request index="0"  response="000000000000000000000000" foes="000000000000001110000000" cont="0"/>
        <request index="1"  response="010000000000000000000000" foes="011111110000011110000000" cont="0"/>
        <request index="2"  response="010000000000000000000000" foes="011111110000011110000000" cont="0"/>
        <request index="3"  response="010000000000010000000000" foes="011111110000011110000000" cont="0"/>
        <request index="4"  response="010000001110010000000000" foes="011110001110111110000000" cont="1"/>
        <request index="5"  response="010000001110000000000000" foes="010000001110000000000000" cont="1"/>
        <request index="6"  response="000000001110000000000000" foes="000000001110000000000000" cont="0"/>
        <request index="7"  response="000000011110000000011111" foes="110000011110000000011111" cont="0"/>
        <request index="8"  response="000000011110000000011111" foes="110000011110000000011111" cont="0"/>
        <request index="9"  response="000000011110000000011111" foes="110000011110000000011111" cont="0"/>
        <request index="10" response="001110011110000000011110" foes="001110111110000000011110" cont="1"/>
        <request index="11" response="001110000000000000010000" foes="001110000000000000010000" cont="1"/>
        <request index="12" response="000000000000000000000000" foes="001110000000000000000000" cont="0"/>
        <request index="13" response="000000000000010000000000" foes="011110000000011111110000" cont="0"/>
        <request index="14" response="000000000000010000000000" foes="011110000000011111110000" cont="0"/>
        <request index="15" response="010000000000010000000000" foes="011110000000011111110000" cont="0"/>
        <request index="16" response="010000000000010000001110" foes="111110000000011110001110" cont="1"/>
        <request index="17" response="000000000000010000001110" foes="000000000000010000001110" cont="1"/>
        <request index="18" response="000000000000000000001110" foes="000000000000000000001110" cont="0"/>
        <request index="19" response="000000011111000000011110" foes="000000011111110000011110" cont="0"/>
        <request index="20" response="000000011111000000011110" foes="000000011111110000011110" cont="0"/>
        <request index="21" response="000000011111000000011110" foes="000000011111110000011110" cont="0"/>
        <request index="22" response="000000011110001110011110" foes="000000011110001110111110" cont="1"/>
        <request index="23" response="000000010000001110000000" foes="000000010000001110000000" cont="1"/>
    </junction>
    <junction id="E" type="priority" x="600.00" y="300.00" incLanes="CE_0 CE_1 CE_2" intLanes=":E_0_0" shape="600.00,300.00 600.00,290.40 600.00,300.00">
        <request index="0" response="0" foes="0" cont="0"/>
    </junction>
    <junction id="N" type="priority" x="300.00" y="600.00" incLanes="CN_0 CN_1 CN_2" intLanes=":N_0_0" shape="300.00,600.00 309.60,600.00 300.00,600.00">
        <request index="0" response="0" foes="0" cont="0"/>
    </junction>
    <junction id="S" type="priority" x="300.00" y="0.00" incLanes="CS_0 CS_1 CS_2" intLanes=":S_0_0" shape="300.00,0.00 290.40,0.00 300.00,0.00">
        <request index="0" response="0" foes="0" cont="0"/>
    </junction>
    <junction id="W" type="priority" x="0.00" y="300.00" incLanes="CW_0 CW_1 CW_2" intLanes=":W_0_0" shape="0.00,300.00 0.00,309.60 0.00,300.00">
        <request index="0" response="0" foes="0" cont="0"/>
    </junction>

    <junction id=":C_24_0" type="internal" x="299.11" y="308.64" incLanes=":C_4_0 SC_0 SC_1 SC_2" intLanes=":C_7_0 :C_7_1 :C_7_2 :C_10_0 :C_11_0 :C_12_0 :C_13_0 :C_13_1 :C_13_2 :C_19_0 :C_19_1 :C_19_2 :C_22_0"/>
    <junction id=":C_25_0" type="internal" x="299.20" y="312.40" incLanes=":C_5_0 EC_0 SC_0 SC_1 SC_2 WC_2" intLanes=":C_6_0 :C_13_0 :C_13_1 :C_13_2 :C_22_0"/>
    <junction id=":C_26_0" type="internal" x="308.64" y="300.89" incLanes=":C_10_0 WC_0 WC_1 WC_2" intLanes=":C_1_0 :C_1_1 :C_1_2 :C_4_0 :C_13_0 :C_13_1 :C_13_2 :C_16_0 :C_17_0 :C_18_0 :C_19_0 :C_19_1 :C_19_2"/>
    <junction id=":C_27_0" type="internal" x="312.40" y="300.80" incLanes=":C_11_0 NC_2 SC_0 WC_0 WC_1 WC_2" intLanes=":C_4_0 :C_12_0 :C_19_0 :C_19_1 :C_19_2"/>
    <junction id=":C_28_0" type="internal" x="300.89" y="291.36" incLanes=":C_16_0 NC_0 NC_1 NC_2" intLanes=":C_0_0 :C_1_0 :C_1_1 :C_1_2 :C_7_0 :C_7_1 :C_7_2 :C_10_0 :C_19_0 :C_19_1 :C_19_2 :C_22_0 :C_23_0"/>
    <junction id=":C_29_0" type="internal" x="300.80" y="287.60" incLanes=":C_17_0 EC_2 NC_0 NC_1 NC_2 WC_0" intLanes=":C_1_0 :C_1_1 :C_1_2 :C_10_0 :C_18_0"/>
    <junction id=":C_30_0" type="internal" x="291.36" y="299.11" incLanes=":C_22_0 EC_0 EC_1 EC_2" intLanes=":C_1_0 :C_1_1 :C_1_2 :C_4_0 :C_5_0 :C_6_0 :C_7_0 :C_7_1 :C_7_2 :C_13_0 :C_13_1 :C_13_2 :C_16_0"/>
    <junction id=":C_31_0" type="internal" x="287.60" y="299.20" incLanes=":C_23_0 EC_0 EC_1 EC_2 NC_0 SC_2" intLanes=":C_0_0 :C_7_0 :C_7_1 :C_7_2 :C_16_0"/>

    <connection from="CE" to="EC" fromLane="2" toLane="2" via=":E_0_0" dir="t" state="M"/>
    <connection from="CN" to="NC" fromLane="2" toLane="2" via=":N_0_0" dir="t" state="M"/>
    <connection from="CS" to="SC" fromLane="2" toLane="2" via=":S_0_0" dir="t" state="M"/>
    <connection from="CW" to="WC" fromLane="2" toLane="2" via=":W_0_0" dir="t" state="M"/>
    <connection from="EC" to="CN" fromLane="0" toLane="0" via=":C_6_0" tl="C" linkIndex="6" dir="r" state="o"/>
    <connection from="EC" to="CW" fromLane="0" toLane="0" via=":C_7_0" tl="C" linkIndex="7" dir="s" state="o"/>
    <connection from="EC" to="CW" fromLane="1" toLane="1" via=":C_7_1" tl="C" linkIndex="8" dir="s" state="o"/>
    <connection from="EC" to="CW" fromLane="2" toLane="2" via=":C_7_2" tl="C" linkIndex="9" dir="s" state="o"/>
    <connection from="EC" to="CS" fromLane="2" toLane="2" via=":C_10_0" tl="C" linkIndex="10" dir="l" state="o"/>
    <connection from="EC" to="CE" fromLane="2" toLane="2" via=":C_11_0" tl="C" linkIndex="11" dir="t" state="o"/>
    <connection from="NC" to="CW" fromLane="0" toLane="0" via=":C_0_0" tl="C" linkIndex="0" dir="r" state="O"/>
    <connection from="NC" to="CS" fromLane="0" toLane="0" via=":C_1_0" tl="C" linkIndex="1" dir="s" state="O"/>
    <connection from="NC" to="CS" fromLane="1" toLane="1" via=":C_1_1" tl="C" linkIndex="2" dir="s" state="O"/>
    <connection from="NC" to="CS" fromLane="2" toLane="2" via=":C_1_2" tl="C" linkIndex="3" dir="s" state="O"/>
    <connection from="NC" to="CE" fromLane="2" toLane="2" via=":C_4_0" tl="C" linkIndex="4" dir="l" state="o"/>
    <connection from="NC" to="CN" fromLane="2" toLane="2" via=":C_5_0" tl="C" linkIndex="5" dir="t" state="o"/>
    <connection from="SC" to="CE" fromLane="0" toLane="0" via=":C_12_0" tl="C" linkIndex="12" dir="r" state="O"/>
    <connection from="SC" to="CN" fromLane="0" toLane="0" via=":C_13_0" tl="C" linkIndex="13" dir="s" state="O"/>
    <connection from="SC" to="CN" fromLane="1" toLane="1" via=":C_13_1" tl="C" linkIndex="14" dir="s" state="O"/>
    <connection from="SC" to="CN" fromLane="2" toLane="2" via=":C_13_2" tl="C" linkIndex="15" dir="s" state="O"/>
    <connection from="SC" to="CW" fromLane="2" toLane="2" via=":C_16_0" tl="C" linkIndex="16" dir="l" state="o"/>
    <connection from="SC" to="CS" fromLane="2" toLane="2" via=":C_17_0" tl="C" linkIndex="17" dir="t" state="o"/>
    <connection from="WC" to="CS" fromLane="0" toLane="0" via=":C_18_0" tl="C" linkIndex="18" dir="r" state="o"/>
    <connection from="WC" to="CE" fromLane="0" toLane="0" via=":C_19_0" tl="C" linkIndex="19" dir="s" state="o"/>
    <connection from="WC" to="CE" fromLane="1" toLane="1" via=":C_19_1" tl="C" linkIndex="20" dir="s" state="o"/>
    <connection from="WC" to="CE" fromLane="2" toLane="2" via=":C_19_2" tl="C" linkIndex="21" dir="s" state="o"/>
    <connection from="WC" to="CN" fromLane="2" toLane="2" via=":C_22_0" tl="C" linkIndex="22" dir="l" state="o"/>
    <connection from="WC" to="CW" fromLane="2" toLane="2" via=":C_23_0" tl="C" linkIndex="23" dir="t" state="o"/>

    <connection from=":C_0" to="CW" fromLane="0" toLane="0" dir="r" state="M"/>
    <connection from=":C_1" to="CS" fromLane="0" toLane="0" dir="s" state="M"/>
    <connection from=":C_1" to="CS" fromLane="1" toLane="1" dir="s" state="M"/>
    <connection from=":C_1" to="CS" fromLane="2" toLane="2" dir="s" state="M"/>
    <connection from=":C_4" to="CE" fromLane="0" toLane="2" via=":C_24_0" dir="l" state="m"/>
    <connection from=":C_24" to="CE" fromLane="0" toLane="2" dir="l" state="M"/>
    <connection from=":C_5" to="CN" fromLane="0" toLane="2" via=":C_25_0" dir="t" state="m"/>
    <connection from=":C_25" to="CN" fromLane="0" toLane="2" dir="t" state="M"/>
    <connection from=":C_6" to="CN" fromLane="0" toLane="0" dir="r" state="M"/>
    <connection from=":C_7" to="CW" fromLane="0" toLane="0" dir="s" state="M"/>
    <connection from=":C_7" to="CW" fromLane="1" toLane="1" dir="s" state="M"/>
    <connection from=":C_7" to="CW" fromLane="2" toLane="2" dir="s" state="M"/>
    <connection from=":C_10" to="CS" fromLane="0" toLane="2" via=":C_26_0" dir="l" state="m"/>
    <connection from=":C_26" to="CS" fromLane="0" toLane="2" dir="l" state="M"/>
    <connection from=":C_11" to="CE" fromLane="0" toLane="2" via=":C_27_0" dir="t" state="m"/>
    <connection from=":C_27" to="CE" fromLane="0" toLane="2" dir="t" state="M"/>
    <connection from=":C_12" to="CE" fromLane="0" toLane="0" dir="r" state="M"/>
    <connection from=":C_13" to="CN" fromLane="0" toLane="0" dir="s" state="M"/>
    <connection from=":C_13" to="CN" fromLane="1" toLane="1" dir="s" state="M"/>
    <connection from=":C_13" to="CN" fromLane="2" toLane="2" dir="s" state="M"/>
    <connection from=":C_16" to="CW" fromLane="0" toLane="2" via=":C_28_0" dir="l" state="m"/>
    <connection from=":C_28" to="CW" fromLane="0" toLane="2" dir="l" state="M"/>
    <connection from=":C_17" to="CS" fromLane="0" toLane="2" via=":C_29_0" dir="t" state="m"/>
    <connection from=":C_29" to="CS" fromLane="0" toLane="2" dir="t" state="M"/>
    <connection from=":C_18" to="CS" fromLane="0" toLane="0" dir="r" state="M"/>
    <connection from=":C_19" to="CE" fromLane="0" toLane="0" dir="s" state="M"/>
    <connection from=":C_19" to="CE" fromLane="1" toLane="1" dir="s" state="M"/>
    <connection from=":C_19" to="CE" fromLane="2" toLane="2" dir="s" state="M"/>
    <connection from=":C_22" to="CN" fromLane="0" toLane="2" via=":C_30_0" dir="l" state="m"/>
    <connection from=":C_30" to="CN" fromLane="0" toLane="2" dir="l" state="M"/>
    <connection from=":C_23" to="CW" fromLane="0" toLane="2" via=":C_31_0" dir="t" state="m"/>
    <connection from=":C_31" to="CW" fromLane="0" toLane="2" dir="t" state="M"/>
    <connection from=":E_0" to="EC" fromLane="0" toLane="2" dir="t" state="M"/>
    <connection from=":N_0" to="NC" fromLane="0" toLane="2" dir="t" state="M"/>
    <connection from=":S_0" to="SC" fromLane="0" toLane="2" dir="t" state="M"/>
    <connection from=":W_0" to="WC" fromLane="0" toLane="2" dir="t" state="M"/>

</net>
