<?xml version="1.0" encoding="UTF-8"?>
<nodes>
    <node id="C" x="0.0"    y="0.0"    type="traffic_light"/>
    <node id="W" x="-300.0" y="0.0"    type="dead_end"/>
    <node id="E" x="300.0"  y="0.0"    type="dead_end"/>
    <node id="N" x="0.0"    y="300.0"  type="dead_end"/>
    <node id="S" x="0.0"    y="-300.0" type="dead_end"/>
</nodes>